CRYSTAL
PRIMVEC
   12.763277000   0.000000000   0.000000000
    0.000000000   7.657966000   0.000000000
    0.000000000   1.276328000  32.660000000
PRIMCOORD
183   1
    79    0.000000000   1.276328180   0.000000000 
    79    2.552655880   1.276328180   0.000000000 
    79    5.105310960   1.276328180   0.000000000 
    79    7.657966440   1.276328180   0.000000000 
    79   10.210621920   1.276328180   0.000000000 
    79    0.000000000   3.828983660   0.000000000 
    79    2.552655880   3.828983660   0.000000000 
    79    5.105310960   3.828983660   0.000000000 
    79    7.657966440   3.828983660   0.000000000 
    79   10.210621920   3.828983660   0.000000000 
    79    0.000000000   6.381638700   0.000000000 
    79    2.552655880   6.381638700   0.000000000 
    79    5.105310960   6.381638700   0.000000000 
    79    7.657966440   6.381638700   0.000000000 
    79   10.210621920   6.381638700   0.000000000 
    79    1.276328140   2.552655920   1.805000000 
    79    3.828983220   2.552655920   1.805000000 
    79    6.381638700   2.552655920   1.805000000 
    79    8.934294180   2.552655920   1.805000000 
    79   11.486949660   2.552655920   1.805000000 
    79    1.276328140   5.105310960   1.805000000 
    79    3.828983220   5.105310960   1.805000000 
    79    6.381638700   5.105310960   1.805000000 
    79    8.934294180   5.105310960   1.805000000 
    79   11.486949660   5.105310960   1.805000000 
    79    1.276328140   7.657966440   1.805000000 
    79    3.828983220   7.657966440   1.805000000 
    79    6.381638700   7.657966440   1.805000000 
    79    8.934294180   7.657966440   1.805000000 
    79   11.486949660   7.657966440   1.805000000 
    79    0.000000000   1.276328180   3.610000000 
    79    2.552655880   1.276328180   3.610000000 
    79    5.105310960   1.276328180   3.610000000 
    79    7.657966440   1.276328180   3.610000000 
    79   10.210621920   1.276328180   3.610000000 
    79    0.000000000   3.828983660   3.610000000 
    79    2.552655880   3.828983660   3.610000000 
    79    5.105310960   3.828983660   3.610000000 
    79    7.657966440   3.828983660   3.610000000 
    79   10.210621920   3.828983660   3.610000000 
    79    0.000000000   6.381638700   3.610000000 
    79    2.552655880   6.381638700   3.610000000 
    79    5.105310960   6.381638700   3.610000000 
    79    7.657966440   6.381638700   3.610000000 
    79   10.210621920   6.381638700   3.610000000 
    79    1.276328140   2.552655920   5.415000000 
    79    3.828983220   2.552655920   5.415000000 
    79    6.381638700   2.552655920   5.415000000 
    79    8.934294180   2.552655920   5.415000000 
    79   11.486949660   2.552655920   5.415000000 
    79    1.276328140   5.105310960   5.415000000 
    79    3.828983220   5.105310960   5.415000000 
    79    6.381638700   5.105310960   5.415000000 
    79    8.934294180   5.105310960   5.415000000 
    79   11.486949660   5.105310960   5.415000000 
    79    1.276328140   7.657966440   5.415000000 
    79    3.828983220   7.657966440   5.415000000 
    79    6.381638700   7.657966440   5.415000000 
    79    8.934294180   7.657966440   5.415000000 
    79   11.486949660   7.657966440   5.415000000 
    79    0.000000000   1.276328180   7.220000000 
    79    2.552655880   1.276328180   7.220000000 
    79    5.105310960   1.276328180   7.220000000 
    79    7.657966440   1.276328180   7.220000000 
    79   10.210621920   1.276328180   7.220000000 
    79    0.000000000   3.828983660   7.220000000 
    79    2.552655880   3.828983660   7.220000000 
    79    5.105310960   3.828983660   7.220000000 
    79    7.657966440   3.828983660   7.220000000 
    79   10.210621920   3.828983660   7.220000000 
    79    0.000000000   6.381638700   7.220000000 
    79    2.552655880   6.381638700   7.220000000 
    79    5.105310960   6.381638700   7.220000000 
    79    7.657966440   6.381638700   7.220000000 
    79   10.210621920   6.381638700   7.220000000 
    79    1.276328140   2.552655920   9.025000000 
    79    3.828983220   2.552655920   9.025000000 
    79    6.381638700   2.552655920   9.025000000 
    79    8.934294180   2.552655920   9.025000000 
    79   11.486949660   2.552655920   9.025000000 
    79    1.276328140   5.105310960   9.025000000 
    79    3.828983220   5.105310960   9.025000000 
    79    6.381638700   5.105310960   9.025000000 
    79    8.934294180   5.105310960   9.025000000 
    79   11.486949660   5.105310960   9.025000000 
    79    1.276328140   7.657966440   9.025000000 
    79    3.828983220   7.657966440   9.025000000 
    79    6.381638700   7.657966440   9.025000000 
    79    8.934294180   7.657966440   9.025000000 
    79   11.486949660   7.657966440   9.025000000 
     7    4.042449400   3.886539740  11.041951720 
     7    8.714954200   3.888263640  11.044240700 
     7    6.378950740   3.908594420  11.050227850 
     7    5.114684090   3.863814530  13.109229400 
     7    7.504627040   3.858708510  13.088102600 
     7    6.445941130   3.839294390  15.109625700 
     6    5.184974460   3.887201170  11.786485170 
     6    7.560314150   3.886876720  11.732060040 
     6    6.286576450   3.854585000  13.826197100 
     1    3.220995230   3.876030960  11.658995920 
     1    9.557959340   3.876641490  11.628951540 
     1    5.511468160   3.836157620  15.546481570 
     1    8.349374440   3.843722820  13.661802710 
    79    6.381638820   3.828983290  20.025000000 
    79    5.105311460   2.552655970  21.830000000 
    79    7.657966590   2.552655970  21.830000000 
    79    5.105311460   5.105311060  21.830000000 
    79    7.657966590   5.105311060  21.830000000 
    79    1.276328160   1.276328200  23.635000000 
    79    3.828983690   1.276328200  23.635000000 
    79    6.381638820   1.276328200  23.635000000 
    79    8.934294350   1.276328200  23.635000000 
    79   11.486949880   1.276328200  23.635000000 
    79    1.276328160   3.828983290  23.635000000 
    79    3.828983690   3.828983290  23.635000000 
    79    6.381638820   3.828983290  23.635000000 
    79    8.934294350   3.828983290  23.635000000 
    79   11.486949880   3.828983290  23.635000000 
    79    1.276328160   6.381638820  23.635000000 
    79    3.828983690   6.381638820  23.635000000 
    79    6.381638820   6.381638820  23.635000000 
    79    8.934294350   6.381638820  23.635000000 
    79   11.486949880   6.381638820  23.635000000 
    79    0.000000000   2.552656230  25.440000000 
    79    2.552655930   2.552656230  25.440000000 
    79    5.105311060   2.552656230  25.440000000 
    79    7.657966590   2.552656230  25.440000000 
    79   10.210622110   2.552656230  25.440000000 
    79    0.000000000   5.105311760  25.440000000 
    79    2.552655930   5.105311760  25.440000000 
    79    5.105311060   5.105311760  25.440000000 
    79    7.657966590   5.105311760  25.440000000 
    79   10.210622110   5.105311760  25.440000000 
    79    0.000000000   7.657966850  25.440000000 
    79    2.552655930   7.657966850  25.440000000 
    79    5.105311060   7.657966850  25.440000000 
    79    7.657966590   7.657966850  25.440000000 
    79   10.210622110   7.657966850  25.440000000 
    79    1.276328160   3.828983990  27.245000000 
    79    3.828983290   3.828983990  27.245000000 
    79    6.381638820   3.828983990  27.245000000 
    79    8.934294350   3.828983990  27.245000000 
    79   11.486949880   3.828983990  27.245000000 
    79    1.276328160   6.381639080  27.245000000 
    79    3.828983290   6.381639080  27.245000000 
    79    6.381638820   6.381639080  27.245000000 
    79    8.934294350   6.381639080  27.245000000 
    79   11.486949880   6.381639080  27.245000000 
    79    1.276328160   8.934294610  27.245000000 
    79    3.828983290   8.934294610  27.245000000 
    79    6.381638820   8.934294610  27.245000000 
    79    8.934294350   8.934294610  27.245000000 
    79   11.486949880   8.934294610  27.245000000 
    79    0.000000000   2.552656230  29.050000000 
    79    2.552655930   2.552656230  29.050000000 
    79    5.105311060   2.552656230  29.050000000 
    79    7.657966590   2.552656230  29.050000000 
    79   10.210622110   2.552656230  29.050000000 
    79    0.000000000   5.105311760  29.050000000 
    79    2.552655930   5.105311760  29.050000000 
    79    5.105311060   5.105311760  29.050000000 
    79    7.657966590   5.105311760  29.050000000 
    79   10.210622110   5.105311760  29.050000000 
    79    0.000000000   7.657966850  29.050000000 
    79    2.552655930   7.657966850  29.050000000 
    79    5.105311060   7.657966850  29.050000000 
    79    7.657966590   7.657966850  29.050000000 
    79   10.210622110   7.657966850  29.050000000 
    79    1.276328160   3.828983990  30.855000000 
    79    3.828983290   3.828983990  30.855000000 
    79    6.381638820   3.828983990  30.855000000 
    79    8.934294350   3.828983990  30.855000000 
    79   11.486949880   3.828983990  30.855000000 
    79    1.276328160   6.381639080  30.855000000 
    79    3.828983290   6.381639080  30.855000000 
    79    6.381638820   6.381639080  30.855000000 
    79    8.934294350   6.381639080  30.855000000 
    79   11.486949880   6.381639080  30.855000000 
    79    1.276328160   8.934294610  30.855000000 
    79    3.828983290   8.934294610  30.855000000 
    79    6.381638820   8.934294610  30.855000000 
    79    8.934294350   8.934294610  30.855000000 
    79   11.486949880   8.934294610  30.855000000 
